*SPEF "ieee 1481-1999"
*DESIGN "user_proj_example"
*DATE "11:11:11 Fri 11 11, 1111"
*VENDOR "OpenRCX"
*PROGRAM "Parallel Extraction"
*VERSION "1.0"
*DESIGN_FLOW "NAME_SCOPE LOCAL" "PIN_CAP NONE"
*DIVIDER /
*DELIMITER :
*BUS_DELIMITER []
*T_UNIT 1 NS
*C_UNIT 1 PF
*R_UNIT 1 OHM
*L_UNIT 1 HENRY

*NAME_MAP
*1 io_in[0]
*2 io_in[10]
*3 io_in[11]
*4 io_in[12]
*5 io_in[13]
*6 io_in[14]
*7 io_in[15]
*8 io_in[16]
*9 io_in[17]
*10 io_in[18]
*11 io_in[19]
*12 io_in[1]
*13 io_in[20]
*14 io_in[21]
*15 io_in[22]
*16 io_in[23]
*17 io_in[24]
*18 io_in[25]
*19 io_in[26]
*20 io_in[27]
*21 io_in[28]
*22 io_in[29]
*23 io_in[2]
*24 io_in[30]
*25 io_in[31]
*26 io_in[32]
*27 io_in[33]
*28 io_in[34]
*29 io_in[35]
*30 io_in[36]
*31 io_in[37]
*32 io_in[3]
*33 io_in[4]
*34 io_in[5]
*35 io_in[6]
*36 io_in[7]
*37 io_in[8]
*38 io_in[9]
*39 io_oeb[0]
*40 io_oeb[10]
*41 io_oeb[11]
*42 io_oeb[12]
*43 io_oeb[13]
*44 io_oeb[14]
*45 io_oeb[15]
*46 io_oeb[16]
*47 io_oeb[17]
*48 io_oeb[18]
*49 io_oeb[19]
*50 io_oeb[1]
*51 io_oeb[20]
*52 io_oeb[21]
*53 io_oeb[22]
*54 io_oeb[23]
*55 io_oeb[24]
*56 io_oeb[25]
*57 io_oeb[26]
*58 io_oeb[27]
*59 io_oeb[28]
*60 io_oeb[29]
*61 io_oeb[2]
*62 io_oeb[30]
*63 io_oeb[31]
*64 io_oeb[32]
*65 io_oeb[33]
*66 io_oeb[34]
*67 io_oeb[35]
*68 io_oeb[36]
*69 io_oeb[37]
*70 io_oeb[3]
*71 io_oeb[4]
*72 io_oeb[5]
*73 io_oeb[6]
*74 io_oeb[7]
*75 io_oeb[8]
*76 io_oeb[9]
*77 io_out[0]
*78 io_out[10]
*79 io_out[11]
*80 io_out[12]
*81 io_out[13]
*82 io_out[14]
*83 io_out[15]
*84 io_out[16]
*85 io_out[17]
*86 io_out[18]
*87 io_out[19]
*88 io_out[1]
*89 io_out[20]
*90 io_out[21]
*91 io_out[22]
*92 io_out[23]
*93 io_out[24]
*94 io_out[25]
*95 io_out[26]
*96 io_out[27]
*97 io_out[28]
*98 io_out[29]
*99 io_out[2]
*100 io_out[30]
*101 io_out[31]
*102 io_out[32]
*103 io_out[33]
*104 io_out[34]
*105 io_out[35]
*106 io_out[36]
*107 io_out[37]
*108 io_out[3]
*109 io_out[4]
*110 io_out[5]
*111 io_out[6]
*112 io_out[7]
*113 io_out[8]
*114 io_out[9]
*115 irq[0]
*116 irq[1]
*117 irq[2]
*118 la_data_in[0]
*119 la_data_in[100]
*120 la_data_in[101]
*121 la_data_in[102]
*122 la_data_in[103]
*123 la_data_in[104]
*124 la_data_in[105]
*125 la_data_in[106]
*126 la_data_in[107]
*127 la_data_in[108]
*128 la_data_in[109]
*129 la_data_in[10]
*130 la_data_in[110]
*131 la_data_in[111]
*132 la_data_in[112]
*133 la_data_in[113]
*134 la_data_in[114]
*135 la_data_in[115]
*136 la_data_in[116]
*137 la_data_in[117]
*138 la_data_in[118]
*139 la_data_in[119]
*140 la_data_in[11]
*141 la_data_in[120]
*142 la_data_in[121]
*143 la_data_in[122]
*144 la_data_in[123]
*145 la_data_in[124]
*146 la_data_in[125]
*147 la_data_in[126]
*148 la_data_in[127]
*149 la_data_in[12]
*150 la_data_in[13]
*151 la_data_in[14]
*152 la_data_in[15]
*153 la_data_in[16]
*154 la_data_in[17]
*155 la_data_in[18]
*156 la_data_in[19]
*157 la_data_in[1]
*158 la_data_in[20]
*159 la_data_in[21]
*160 la_data_in[22]
*161 la_data_in[23]
*162 la_data_in[24]
*163 la_data_in[25]
*164 la_data_in[26]
*165 la_data_in[27]
*166 la_data_in[28]
*167 la_data_in[29]
*168 la_data_in[2]
*169 la_data_in[30]
*170 la_data_in[31]
*171 la_data_in[32]
*172 la_data_in[33]
*173 la_data_in[34]
*174 la_data_in[35]
*175 la_data_in[36]
*176 la_data_in[37]
*177 la_data_in[38]
*178 la_data_in[39]
*179 la_data_in[3]
*180 la_data_in[40]
*181 la_data_in[41]
*182 la_data_in[42]
*183 la_data_in[43]
*184 la_data_in[44]
*185 la_data_in[45]
*186 la_data_in[46]
*187 la_data_in[47]
*188 la_data_in[48]
*189 la_data_in[49]
*190 la_data_in[4]
*191 la_data_in[50]
*192 la_data_in[51]
*193 la_data_in[52]
*194 la_data_in[53]
*195 la_data_in[54]
*196 la_data_in[55]
*197 la_data_in[56]
*198 la_data_in[57]
*199 la_data_in[58]
*200 la_data_in[59]
*201 la_data_in[5]
*202 la_data_in[60]
*203 la_data_in[61]
*204 la_data_in[62]
*205 la_data_in[63]
*206 la_data_in[64]
*207 la_data_in[65]
*208 la_data_in[66]
*209 la_data_in[67]
*210 la_data_in[68]
*211 la_data_in[69]
*212 la_data_in[6]
*213 la_data_in[70]
*214 la_data_in[71]
*215 la_data_in[72]
*216 la_data_in[73]
*217 la_data_in[74]
*218 la_data_in[75]
*219 la_data_in[76]
*220 la_data_in[77]
*221 la_data_in[78]
*222 la_data_in[79]
*223 la_data_in[7]
*224 la_data_in[80]
*225 la_data_in[81]
*226 la_data_in[82]
*227 la_data_in[83]
*228 la_data_in[84]
*229 la_data_in[85]
*230 la_data_in[86]
*231 la_data_in[87]
*232 la_data_in[88]
*233 la_data_in[89]
*234 la_data_in[8]
*235 la_data_in[90]
*236 la_data_in[91]
*237 la_data_in[92]
*238 la_data_in[93]
*239 la_data_in[94]
*240 la_data_in[95]
*241 la_data_in[96]
*242 la_data_in[97]
*243 la_data_in[98]
*244 la_data_in[99]
*245 la_data_in[9]
*246 la_data_out[0]
*247 la_data_out[100]
*248 la_data_out[101]
*249 la_data_out[102]
*250 la_data_out[103]
*251 la_data_out[104]
*252 la_data_out[105]
*253 la_data_out[106]
*254 la_data_out[107]
*255 la_data_out[108]
*256 la_data_out[109]
*257 la_data_out[10]
*258 la_data_out[110]
*259 la_data_out[111]
*260 la_data_out[112]
*261 la_data_out[113]
*262 la_data_out[114]
*263 la_data_out[115]
*264 la_data_out[116]
*265 la_data_out[117]
*266 la_data_out[118]
*267 la_data_out[119]
*268 la_data_out[11]
*269 la_data_out[120]
*270 la_data_out[121]
*271 la_data_out[122]
*272 la_data_out[123]
*273 la_data_out[124]
*274 la_data_out[125]
*275 la_data_out[126]
*276 la_data_out[127]
*277 la_data_out[12]
*278 la_data_out[13]
*279 la_data_out[14]
*280 la_data_out[15]
*281 la_data_out[16]
*282 la_data_out[17]
*283 la_data_out[18]
*284 la_data_out[19]
*285 la_data_out[1]
*286 la_data_out[20]
*287 la_data_out[21]
*288 la_data_out[22]
*289 la_data_out[23]
*290 la_data_out[24]
*291 la_data_out[25]
*292 la_data_out[26]
*293 la_data_out[27]
*294 la_data_out[28]
*295 la_data_out[29]
*296 la_data_out[2]
*297 la_data_out[30]
*298 la_data_out[31]
*299 la_data_out[32]
*300 la_data_out[33]
*301 la_data_out[34]
*302 la_data_out[35]
*303 la_data_out[36]
*304 la_data_out[37]
*305 la_data_out[38]
*306 la_data_out[39]
*307 la_data_out[3]
*308 la_data_out[40]
*309 la_data_out[41]
*310 la_data_out[42]
*311 la_data_out[43]
*312 la_data_out[44]
*313 la_data_out[45]
*314 la_data_out[46]
*315 la_data_out[47]
*316 la_data_out[48]
*317 la_data_out[49]
*318 la_data_out[4]
*319 la_data_out[50]
*320 la_data_out[51]
*321 la_data_out[52]
*322 la_data_out[53]
*323 la_data_out[54]
*324 la_data_out[55]
*325 la_data_out[56]
*326 la_data_out[57]
*327 la_data_out[58]
*328 la_data_out[59]
*329 la_data_out[5]
*330 la_data_out[60]
*331 la_data_out[61]
*332 la_data_out[62]
*333 la_data_out[63]
*334 la_data_out[64]
*335 la_data_out[65]
*336 la_data_out[66]
*337 la_data_out[67]
*338 la_data_out[68]
*339 la_data_out[69]
*340 la_data_out[6]
*341 la_data_out[70]
*342 la_data_out[71]
*343 la_data_out[72]
*344 la_data_out[73]
*345 la_data_out[74]
*346 la_data_out[75]
*347 la_data_out[76]
*348 la_data_out[77]
*349 la_data_out[78]
*350 la_data_out[79]
*351 la_data_out[7]
*352 la_data_out[80]
*353 la_data_out[81]
*354 la_data_out[82]
*355 la_data_out[83]
*356 la_data_out[84]
*357 la_data_out[85]
*358 la_data_out[86]
*359 la_data_out[87]
*360 la_data_out[88]
*361 la_data_out[89]
*362 la_data_out[8]
*363 la_data_out[90]
*364 la_data_out[91]
*365 la_data_out[92]
*366 la_data_out[93]
*367 la_data_out[94]
*368 la_data_out[95]
*369 la_data_out[96]
*370 la_data_out[97]
*371 la_data_out[98]
*372 la_data_out[99]
*373 la_data_out[9]
*374 la_oenb[0]
*375 la_oenb[100]
*376 la_oenb[101]
*377 la_oenb[102]
*378 la_oenb[103]
*379 la_oenb[104]
*380 la_oenb[105]
*381 la_oenb[106]
*382 la_oenb[107]
*383 la_oenb[108]
*384 la_oenb[109]
*385 la_oenb[10]
*386 la_oenb[110]
*387 la_oenb[111]
*388 la_oenb[112]
*389 la_oenb[113]
*390 la_oenb[114]
*391 la_oenb[115]
*392 la_oenb[116]
*393 la_oenb[117]
*394 la_oenb[118]
*395 la_oenb[119]
*396 la_oenb[11]
*397 la_oenb[120]
*398 la_oenb[121]
*399 la_oenb[122]
*400 la_oenb[123]
*401 la_oenb[124]
*402 la_oenb[125]
*403 la_oenb[126]
*404 la_oenb[127]
*405 la_oenb[12]
*406 la_oenb[13]
*407 la_oenb[14]
*408 la_oenb[15]
*409 la_oenb[16]
*410 la_oenb[17]
*411 la_oenb[18]
*412 la_oenb[19]
*413 la_oenb[1]
*414 la_oenb[20]
*415 la_oenb[21]
*416 la_oenb[22]
*417 la_oenb[23]
*418 la_oenb[24]
*419 la_oenb[25]
*420 la_oenb[26]
*421 la_oenb[27]
*422 la_oenb[28]
*423 la_oenb[29]
*424 la_oenb[2]
*425 la_oenb[30]
*426 la_oenb[31]
*427 la_oenb[32]
*428 la_oenb[33]
*429 la_oenb[34]
*430 la_oenb[35]
*431 la_oenb[36]
*432 la_oenb[37]
*433 la_oenb[38]
*434 la_oenb[39]
*435 la_oenb[3]
*436 la_oenb[40]
*437 la_oenb[41]
*438 la_oenb[42]
*439 la_oenb[43]
*440 la_oenb[44]
*441 la_oenb[45]
*442 la_oenb[46]
*443 la_oenb[47]
*444 la_oenb[48]
*445 la_oenb[49]
*446 la_oenb[4]
*447 la_oenb[50]
*448 la_oenb[51]
*449 la_oenb[52]
*450 la_oenb[53]
*451 la_oenb[54]
*452 la_oenb[55]
*453 la_oenb[56]
*454 la_oenb[57]
*455 la_oenb[58]
*456 la_oenb[59]
*457 la_oenb[5]
*458 la_oenb[60]
*459 la_oenb[61]
*460 la_oenb[62]
*461 la_oenb[63]
*462 la_oenb[64]
*463 la_oenb[65]
*464 la_oenb[66]
*465 la_oenb[67]
*466 la_oenb[68]
*467 la_oenb[69]
*468 la_oenb[6]
*469 la_oenb[70]
*470 la_oenb[71]
*471 la_oenb[72]
*472 la_oenb[73]
*473 la_oenb[74]
*474 la_oenb[75]
*475 la_oenb[76]
*476 la_oenb[77]
*477 la_oenb[78]
*478 la_oenb[79]
*479 la_oenb[7]
*480 la_oenb[80]
*481 la_oenb[81]
*482 la_oenb[82]
*483 la_oenb[83]
*484 la_oenb[84]
*485 la_oenb[85]
*486 la_oenb[86]
*487 la_oenb[87]
*488 la_oenb[88]
*489 la_oenb[89]
*490 la_oenb[8]
*491 la_oenb[90]
*492 la_oenb[91]
*493 la_oenb[92]
*494 la_oenb[93]
*495 la_oenb[94]
*496 la_oenb[95]
*497 la_oenb[96]
*498 la_oenb[97]
*499 la_oenb[98]
*500 la_oenb[99]
*501 la_oenb[9]
*504 wb_clk_i
*505 wb_rst_i
*506 wbs_ack_o
*507 wbs_adr_i[0]
*508 wbs_adr_i[10]
*509 wbs_adr_i[11]
*510 wbs_adr_i[12]
*511 wbs_adr_i[13]
*512 wbs_adr_i[14]
*513 wbs_adr_i[15]
*514 wbs_adr_i[16]
*515 wbs_adr_i[17]
*516 wbs_adr_i[18]
*517 wbs_adr_i[19]
*518 wbs_adr_i[1]
*519 wbs_adr_i[20]
*520 wbs_adr_i[21]
*521 wbs_adr_i[22]
*522 wbs_adr_i[23]
*523 wbs_adr_i[24]
*524 wbs_adr_i[25]
*525 wbs_adr_i[26]
*526 wbs_adr_i[27]
*527 wbs_adr_i[28]
*528 wbs_adr_i[29]
*529 wbs_adr_i[2]
*530 wbs_adr_i[30]
*531 wbs_adr_i[31]
*532 wbs_adr_i[3]
*533 wbs_adr_i[4]
*534 wbs_adr_i[5]
*535 wbs_adr_i[6]
*536 wbs_adr_i[7]
*537 wbs_adr_i[8]
*538 wbs_adr_i[9]
*539 wbs_cyc_i
*540 wbs_dat_i[0]
*541 wbs_dat_i[10]
*542 wbs_dat_i[11]
*543 wbs_dat_i[12]
*544 wbs_dat_i[13]
*545 wbs_dat_i[14]
*546 wbs_dat_i[15]
*547 wbs_dat_i[16]
*548 wbs_dat_i[17]
*549 wbs_dat_i[18]
*550 wbs_dat_i[19]
*551 wbs_dat_i[1]
*552 wbs_dat_i[20]
*553 wbs_dat_i[21]
*554 wbs_dat_i[22]
*555 wbs_dat_i[23]
*556 wbs_dat_i[24]
*557 wbs_dat_i[25]
*558 wbs_dat_i[26]
*559 wbs_dat_i[27]
*560 wbs_dat_i[28]
*561 wbs_dat_i[29]
*562 wbs_dat_i[2]
*563 wbs_dat_i[30]
*564 wbs_dat_i[31]
*565 wbs_dat_i[3]
*566 wbs_dat_i[4]
*567 wbs_dat_i[5]
*568 wbs_dat_i[6]
*569 wbs_dat_i[7]
*570 wbs_dat_i[8]
*571 wbs_dat_i[9]
*572 wbs_dat_o[0]
*573 wbs_dat_o[10]
*574 wbs_dat_o[11]
*575 wbs_dat_o[12]
*576 wbs_dat_o[13]
*577 wbs_dat_o[14]
*578 wbs_dat_o[15]
*579 wbs_dat_o[16]
*580 wbs_dat_o[17]
*581 wbs_dat_o[18]
*582 wbs_dat_o[19]
*583 wbs_dat_o[1]
*584 wbs_dat_o[20]
*585 wbs_dat_o[21]
*586 wbs_dat_o[22]
*587 wbs_dat_o[23]
*588 wbs_dat_o[24]
*589 wbs_dat_o[25]
*590 wbs_dat_o[26]
*591 wbs_dat_o[27]
*592 wbs_dat_o[28]
*593 wbs_dat_o[29]
*594 wbs_dat_o[2]
*595 wbs_dat_o[30]
*596 wbs_dat_o[31]
*597 wbs_dat_o[3]
*598 wbs_dat_o[4]
*599 wbs_dat_o[5]
*600 wbs_dat_o[6]
*601 wbs_dat_o[7]
*602 wbs_dat_o[8]
*603 wbs_dat_o[9]
*604 wbs_sel_i[0]
*605 wbs_sel_i[1]
*606 wbs_sel_i[2]
*607 wbs_sel_i[3]
*608 wbs_stb_i
*609 wbs_we_i
*610 _000_
*611 _001_
*612 _002_
*613 _003_
*614 _004_
*615 _005_
*616 _006_
*617 _007_
*618 _008_
*619 _009_
*620 _010_
*621 _011_
*622 _012_
*623 _013_
*624 _014_
*625 _015_
*626 _016_
*627 _017_
*628 _018_
*629 _019_
*630 _020_
*631 _021_
*632 _022_
*633 _023_
*634 _024_
*635 _025_
*636 _026_
*637 _027_
*638 _028_
*639 _029_
*640 _030_
*641 _031_
*642 _032_
*643 _033_
*644 _034_
*645 _035_
*646 _036_
*647 _037_
*648 _038_
*649 _039_
*650 _040_
*651 _041_
*652 _042_
*653 _043_
*654 _044_
*655 _045_
*656 _046_
*657 _047_
*658 _048_
*659 _049_
*660 _050_
*661 _051_
*662 _052_
*663 _053_
*664 _054_
*665 _055_
*666 _056_
*667 _057_
*668 _058_
*669 _059_
*670 _060_
*671 _061_
*672 _062_
*673 _063_
*674 _064_
*675 _065_
*676 _066_
*677 _067_
*678 _068_
*679 _069_
*680 _070_
*681 _071_
*682 _072_
*683 _073_
*684 _074_
*685 _075_
*686 _076_
*687 _077_
*688 _078_
*689 _079_
*690 _080_
*691 _081_
*692 _082_
*693 _083_
*694 _084_
*695 _085_
*696 _086_
*697 _087_
*698 _088_
*699 _089_
*700 _090_
*701 _091_
*702 _092_
*703 _093_
*704 _094_
*705 _095_
*706 _096_
*707 _097_
*708 _098_
*709 _099_
*710 _100_
*711 _101_
*712 _102_
*713 _103_
*714 _104_
*715 _105_
*716 _106_
*717 _107_
*718 _108_
*719 _109_
*720 _110_
*721 _111_
*722 _112_
*723 _113_
*724 _114_
*725 _115_
*726 _116_
*727 _117_
*728 _118_
*729 _119_
*730 _120_
*731 _121_
*732 _122_
*733 _123_
*734 _124_
*735 _125_
*736 _126_
*737 _127_
*738 _128_
*739 _129_
*740 _130_
*741 _131_
*742 _132_
*743 _133_
*744 _134_
*745 _135_
*746 _136_
*747 _137_
*748 _138_
*749 _139_
*750 _140_
*751 _141_
*752 _142_
*753 _143_
*754 _144_
*755 _145_
*756 _146_
*757 _147_
*758 _148_
*759 _149_
*760 _150_
*761 _151_
*762 _152_
*763 _153_
*764 _154_
*765 _155_
*766 _156_
*767 _157_
*768 _158_
*769 _159_
*770 _160_
*771 _161_
*772 _162_
*773 _163_
*774 _164_
*775 _165_
*776 _166_
*777 _167_
*778 _168_
*779 _169_
*780 _170_
*781 _171_
*782 _172_
*783 _173_
*784 _174_
*785 _175_
*786 _176_
*787 _177_
*788 _178_
*789 _179_
*790 _180_
*791 _181_
*792 _182_
*793 _183_
*794 _184_
*795 _185_
*796 _186_
*797 _187_
*798 net1
*799 net10
*800 net11
*801 net12
*802 net13
*803 net14
*804 net15
*805 net16
*806 net17
*807 net18
*808 net19
*809 net2
*810 net20
*811 net21
*812 net22
*813 net23
*814 net24
*815 net25
*816 net26
*817 net27
*818 net28
*819 net29
*820 net3
*821 net30
*822 net31
*823 net32
*824 net33
*825 net34
*826 net35
*827 net36
*828 net37
*829 net38
*830 net39
*831 net4
*832 net40
*833 net41
*834 net42
*835 net43
*836 net44
*837 net45
*838 net46
*839 net47
*840 net48
*841 net5
*842 net6
*843 net7
*844 net8
*845 net9
*846 ANTENNA__195__A
*847 ANTENNA__195__B
*848 ANTENNA__197__A
*849 ANTENNA__216__A
*850 ANTENNA__218__A
*851 ANTENNA__223__A
*852 ANTENNA__224__B
*853 ANTENNA__231__A
*854 ANTENNA__236__B
*855 ANTENNA__238__B
*856 ANTENNA__239__A
*857 ANTENNA__239__B
*858 ANTENNA__244__A
*859 ANTENNA__244__B
*860 ANTENNA__246__A
*861 ANTENNA__247__A
*862 ANTENNA__247__B
*863 ANTENNA__247__C
*864 ANTENNA__248__A
*865 ANTENNA__249__A
*866 ANTENNA__250__A
*867 ANTENNA__251__A
*868 ANTENNA__252__A
*869 ANTENNA__257__B
*870 ANTENNA__259__A
*871 ANTENNA__260__A
*872 ANTENNA__261__A
*873 ANTENNA__262__A
*874 ANTENNA__262__B
*875 ANTENNA__274__A1
*876 ANTENNA__274__B1
*877 ANTENNA__276__A
*878 ANTENNA__278__A
*879 ANTENNA__279__A1
*880 ANTENNA__281__C
*881 ANTENNA__287__A
*882 ANTENNA__289__A3
*883 ANTENNA__289__B1
*884 ANTENNA__290__A
*885 ANTENNA__291__A
*886 ANTENNA__292__A
*887 ANTENNA__295__A
*888 ANTENNA__296__B
*889 ANTENNA__299__A
*890 ANTENNA__300__A
*891 ANTENNA__303__A
*892 ANTENNA__306__A
*893 ANTENNA__307__A
*894 ANTENNA__307__B
*895 ANTENNA__308__A
*896 ANTENNA__308__B
*897 ANTENNA__309__A
*898 ANTENNA__309__B
*899 ANTENNA__310__A
*900 ANTENNA__310__B
*901 ANTENNA__312__A
*902 ANTENNA__312__B
*903 ANTENNA__313__A
*904 ANTENNA__313__B
*905 ANTENNA__527__S
*906 ANTENNA__528__S
*907 ANTENNA__529__S
*908 ANTENNA__530__S
*909 ANTENNA__531__S
*910 ANTENNA__532__S
*911 ANTENNA__533__S
*912 ANTENNA__534__S
*913 ANTENNA__535__S
*914 ANTENNA__536__S
*915 ANTENNA__537__S
*916 ANTENNA__538__S
*917 ANTENNA__539__S
*918 ANTENNA__540__S
*919 ANTENNA__541__S
*920 ANTENNA__542__S
*921 ANTENNA__543__S
*922 ANTENNA__544__S
*923 ANTENNA__545__S
*924 ANTENNA__553__S
*925 ANTENNA__554__S
*926 ANTENNA__555__S
*927 ANTENNA__556__S
*928 ANTENNA__557__A0
*929 ANTENNA__557__S
*930 ANTENNA__558__S
*931 ANTENNA__559__S
*932 ANTENNA__560__S
*933 ANTENNA__561__A0
*934 ANTENNA__561__A1
*935 ANTENNA__561__S
*936 ANTENNA__562__S
*937 ANTENNA__563__S
*938 ANTENNA__564__S
*939 ANTENNA__567__A1
*940 ANTENNA__570__S
*941 ANTENNA__571__S
*942 ANTENNA__572__S
*943 ANTENNA__573__S
*944 ANTENNA__574__S
*945 ANTENNA__575__A0
*946 ANTENNA__575__S
*947 ANTENNA__576__S
*948 ANTENNA__577__S
*949 ANTENNA__578__S
*950 ANTENNA__579__S
*951 ANTENNA__580__S
*952 ANTENNA__581__S
*953 ANTENNA__582__S
*954 ANTENNA__583__A0
*955 ANTENNA__583__S
*956 ANTENNA__584__S
*957 ANTENNA__585__S
*958 ANTENNA__586__S
*959 ANTENNA__587__S
*960 ANTENNA__588__S
*961 ANTENNA__589__S
*962 ANTENNA__590__S
*963 ANTENNA__591__S
*964 ANTENNA__592__S
*965 ANTENNA__593__S
*966 ANTENNA__594__A1
*967 ANTENNA__594__S
*968 ANTENNA__595__S
*969 ANTENNA__596__S
*970 ANTENNA__597__S
*971 ANTENNA__598__S
*972 ANTENNA__599__S
*973 ANTENNA__600__S
*974 ANTENNA__601__S
*975 ANTENNA__602__A1
*976 ANTENNA__602__S
*977 ANTENNA__603__S
*978 ANTENNA__604__S
*979 ANTENNA__605__S
*980 ANTENNA__606__S
*981 ANTENNA__607__A1
*982 ANTENNA__607__S
*983 ANTENNA__608__S
*984 ANTENNA__609__S
*985 ANTENNA__610__S
*986 ANTENNA__611__S
*987 ANTENNA__612__S
*988 ANTENNA__613__A1
*989 ANTENNA__613__S
*990 ANTENNA__614__S1
*991 ANTENNA__615__S1
*992 ANTENNA_input10_A
*993 ANTENNA_input11_A
*994 ANTENNA_input12_A
*995 ANTENNA_input13_A
*996 ANTENNA_input14_A
*997 ANTENNA_input15_A
*998 ANTENNA_input16_A
*999 ANTENNA_input17_A
*1000 ANTENNA_input18_A
*1001 ANTENNA_input19_A
*1002 ANTENNA_input1_A
*1003 ANTENNA_input2_A
*1004 ANTENNA_input3_A
*1005 ANTENNA_input4_A
*1006 ANTENNA_input5_A
*1007 ANTENNA_input6_A
*1008 ANTENNA_input7_A
*1009 ANTENNA_input8_A
*1010 ANTENNA_input9_A
*1011 ANTENNA_output29_A
*1012 ANTENNA_output30_A
*1013 ANTENNA_output31_A
*1014 ANTENNA_output32_A
*1015 ANTENNA_output37_A
*1016 ANTENNA_output40_A
*1017 ANTENNA_output41_A
*1018 ANTENNA_output42_A
*1019 ANTENNA_output43_A
*1020 ANTENNA_output44_A
*1021 ANTENNA_output45_A
*1022 FILLER_0_1005
*1023 FILLER_0_1009
*1024 FILLER_0_1021
*1025 FILLER_0_1033
*1026 FILLER_0_1037
*1027 FILLER_0_1049
*1028 FILLER_0_1061
*1029 FILLER_0_1065
*1030 FILLER_0_1077
*1031 FILLER_0_1089
*1032 FILLER_0_109
*1033 FILLER_0_1093
*1034 FILLER_0_1105
*1035 FILLER_0_1117
*1036 FILLER_0_1121
*1037 FILLER_0_113
*1038 FILLER_0_1133
*1039 FILLER_0_1145
*1040 FILLER_0_1149
*1041 FILLER_0_1161
*1042 FILLER_0_1173
*1043 FILLER_0_1177
*1044 FILLER_0_1189
*1045 FILLER_0_1201
*1046 FILLER_0_1205
*1047 FILLER_0_1217
*1048 FILLER_0_1229
*1049 FILLER_0_1233
*1050 FILLER_0_1245
*1051 FILLER_0_125
*1052 FILLER_0_1257
*1053 FILLER_0_1261
*1054 FILLER_0_1273
*1055 FILLER_0_1285
*1056 FILLER_0_1289
*1057 FILLER_0_1301
*1058 FILLER_0_1313
*1059 FILLER_0_1317
*1060 FILLER_0_1329
*1061 FILLER_0_1341
*1062 FILLER_0_1345
*1063 FILLER_0_1357
*1064 FILLER_0_1369
*1065 FILLER_0_137
*1066 FILLER_0_1373
*1067 FILLER_0_1385
*1068 FILLER_0_1397
*1069 FILLER_0_1401
*1070 FILLER_0_141
*1071 FILLER_0_1413
*1072 FILLER_0_1425
*1073 FILLER_0_1429
*1074 FILLER_0_1441
*1075 FILLER_0_1453
*1076 FILLER_0_1457
*1077 FILLER_0_1469
*1078 FILLER_0_1481
*1079 FILLER_0_1485
*1080 FILLER_0_1497
*1081 FILLER_0_15
*1082 FILLER_0_1509
*1083 FILLER_0_1513
*1084 FILLER_0_1525
*1085 FILLER_0_153
*1086 FILLER_0_1537
*1087 FILLER_0_1541
*1088 FILLER_0_1553
*1089 FILLER_0_1565
*1090 FILLER_0_1569
*1091 FILLER_0_1581
*1092 FILLER_0_1593
*1093 FILLER_0_1597
*1094 FILLER_0_1609
*1095 FILLER_0_1621
*1096 FILLER_0_1625
*1097 FILLER_0_1637
*1098 FILLER_0_1649
*1099 FILLER_0_165
*1100 FILLER_0_1653
*1101 FILLER_0_1665
*1102 FILLER_0_1677
*1103 FILLER_0_1681
*1104 FILLER_0_169
*1105 FILLER_0_1693
*1106 FILLER_0_1705
*1107 FILLER_0_1709
*1108 FILLER_0_1721
*1109 FILLER_0_1733
*1110 FILLER_0_1737
*1111 FILLER_0_1749
*1112 FILLER_0_1761
*1113 FILLER_0_1765
*1114 FILLER_0_1777
*1115 FILLER_0_1789
*1116 FILLER_0_1793
*1117 FILLER_0_1805
*1118 FILLER_0_181
*1119 FILLER_0_1817
*1120 FILLER_0_1821
*1121 FILLER_0_1833
*1122 FILLER_0_1845
*1123 FILLER_0_1849
*1124 FILLER_0_1861
*1125 FILLER_0_1873
*1126 FILLER_0_1877
*1127 FILLER_0_1889
*1128 FILLER_0_1901
*1129 FILLER_0_1905
*1130 FILLER_0_1917
*1131 FILLER_0_193
*1132 FILLER_0_197
*1133 FILLER_0_209
*1134 FILLER_0_221
*1135 FILLER_0_225
*1136 FILLER_0_237
*1137 FILLER_0_249
*1138 FILLER_0_253
*1139 FILLER_0_265
*1140 FILLER_0_27
*1141 FILLER_0_277
*1142 FILLER_0_281
*1143 FILLER_0_29
*1144 FILLER_0_293
*1145 FILLER_0_3
*1146 FILLER_0_305
*1147 FILLER_0_309
*1148 FILLER_0_321
*1149 FILLER_0_333
*1150 FILLER_0_337
*1151 FILLER_0_349
*1152 FILLER_0_361
*1153 FILLER_0_365
*1154 FILLER_0_377
*1155 FILLER_0_389
*1156 FILLER_0_393
*1157 FILLER_0_405
*1158 FILLER_0_41
*1159 FILLER_0_417
*1160 FILLER_0_421
*1161 FILLER_0_433
*1162 FILLER_0_445
*1163 FILLER_0_449
*1164 FILLER_0_461
*1165 FILLER_0_473
*1166 FILLER_0_477
*1167 FILLER_0_489
*1168 FILLER_0_501
*1169 FILLER_0_505
*1170 FILLER_0_517
*1171 FILLER_0_529
*1172 FILLER_0_53
*1173 FILLER_0_533
*1174 FILLER_0_545
*1175 FILLER_0_557
*1176 FILLER_0_561
*1177 FILLER_0_57
*1178 FILLER_0_573
*1179 FILLER_0_585
*1180 FILLER_0_589
*1181 FILLER_0_601
*1182 FILLER_0_613
*1183 FILLER_0_617
*1184 FILLER_0_629
*1185 FILLER_0_641
*1186 FILLER_0_645
*1187 FILLER_0_657
*1188 FILLER_0_669
*1189 FILLER_0_673
*1190 FILLER_0_685
*1191 FILLER_0_69
*1192 FILLER_0_697
*1193 FILLER_0_701
*1194 FILLER_0_713
*1195 FILLER_0_725
*1196 FILLER_0_729
*1197 FILLER_0_741
*1198 FILLER_0_753
*1199 FILLER_0_757
*1200 FILLER_0_769
*1201 FILLER_0_781
*1202 FILLER_0_785
*1203 FILLER_0_797
*1204 FILLER_0_809
*1205 FILLER_0_81
*1206 FILLER_0_813
*1207 FILLER_0_825
*1208 FILLER_0_837
*1209 FILLER_0_841
*1210 FILLER_0_85
*1211 FILLER_0_853
*1212 FILLER_0_865
*1213 FILLER_0_869
*1214 FILLER_0_881
*1215 FILLER_0_893
*1216 FILLER_0_897
*1217 FILLER_0_909
*1218 FILLER_0_921
*1219 FILLER_0_925
*1220 FILLER_0_937
*1221 FILLER_0_949
*1222 FILLER_0_953
*1223 FILLER_0_965
*1224 FILLER_0_97
*1225 FILLER_0_977
*1226 FILLER_0_981
*1227 FILLER_0_993
*1228 FILLER_100_1005
*1229 FILLER_100_1017
*1230 FILLER_100_1029
*1231 FILLER_100_1035
*1232 FILLER_100_1037
*1233 FILLER_100_1049
*1234 FILLER_100_1061
*1235 FILLER_100_1073
*1236 FILLER_100_1085
*1237 FILLER_100_109
*1238 FILLER_100_1091
*1239 FILLER_100_1093
*1240 FILLER_100_1105
*1241 FILLER_100_1117
*1242 FILLER_100_1129
*1243 FILLER_100_1141
*1244 FILLER_100_1147
*1245 FILLER_100_1149
*1246 FILLER_100_1161
*1247 FILLER_100_1173
*1248 FILLER_100_1185
*1249 FILLER_100_1197
*1250 FILLER_100_1203
*1251 FILLER_100_1205
*1252 FILLER_100_121
*1253 FILLER_100_1217
*1254 FILLER_100_1229
*1255 FILLER_100_1241
*1256 FILLER_100_1253
*1257 FILLER_100_1259
*1258 FILLER_100_1261
*1259 FILLER_100_1273
*1260 FILLER_100_1285
*1261 FILLER_100_1297
*1262 FILLER_100_1309
*1263 FILLER_100_1315
*1264 FILLER_100_1317
*1265 FILLER_100_1329
*1266 FILLER_100_133
*1267 FILLER_100_1341
*1268 FILLER_100_1353
*1269 FILLER_100_1365
*1270 FILLER_100_1371
*1271 FILLER_100_1373
*1272 FILLER_100_1385
*1273 FILLER_100_139
*1274 FILLER_100_1397
*1275 FILLER_100_1409
*1276 FILLER_100_141
*1277 FILLER_100_1421
*1278 FILLER_100_1427
*1279 FILLER_100_1429
*1280 FILLER_100_1441
*1281 FILLER_100_1453
*1282 FILLER_100_1465
*1283 FILLER_100_1477
*1284 FILLER_100_1483
*1285 FILLER_100_1485
*1286 FILLER_100_1497
*1287 FILLER_100_15
*1288 FILLER_100_1509
*1289 FILLER_100_1521
*1290 FILLER_100_153
*1291 FILLER_100_1533
*1292 FILLER_100_1539
*1293 FILLER_100_1541
*1294 FILLER_100_1553
*1295 FILLER_100_1565
*1296 FILLER_100_1577
*1297 FILLER_100_1589
*1298 FILLER_100_1595
*1299 FILLER_100_1597
*1300 FILLER_100_1609
*1301 FILLER_100_1621
*1302 FILLER_100_1633
*1303 FILLER_100_1645
*1304 FILLER_100_165
*1305 FILLER_100_1651
*1306 FILLER_100_1653
*1307 FILLER_100_1665
*1308 FILLER_100_1677
*1309 FILLER_100_1689
*1310 FILLER_100_1701
*1311 FILLER_100_1707
*1312 FILLER_100_1709
*1313 FILLER_100_1721
*1314 FILLER_100_1733
*1315 FILLER_100_1745
*1316 FILLER_100_1757
*1317 FILLER_100_1763
*1318 FILLER_100_1765
*1319 FILLER_100_177
*1320 FILLER_100_1777
*1321 FILLER_100_1789
*1322 FILLER_100_1801
*1323 FILLER_100_1813
*1324 FILLER_100_1819
*1325 FILLER_100_1821
*1326 FILLER_100_1833
*1327 FILLER_100_1845
*1328 FILLER_100_1857
*1329 FILLER_100_1869
*1330 FILLER_100_1875
*1331 FILLER_100_1877
*1332 FILLER_100_1889
*1333 FILLER_100_189
*1334 FILLER_100_1901
*1335 FILLER_100_1913
*1336 FILLER_100_1925
*1337 FILLER_100_195
*1338 FILLER_100_197
*1339 FILLER_100_209
*1340 FILLER_100_221
*1341 FILLER_100_233
*1342 FILLER_100_245
*1343 FILLER_100_251
*1344 FILLER_100_253
*1345 FILLER_100_265
*1346 FILLER_100_27
*1347 FILLER_100_277
*1348 FILLER_100_289
*1349 FILLER_100_29
*1350 FILLER_100_3
*1351 FILLER_100_301
*1352 FILLER_100_307
*1353 FILLER_100_309
*1354 FILLER_100_321
*1355 FILLER_100_333
*1356 FILLER_100_345
*1357 FILLER_100_357
*1358 FILLER_100_363
*1359 FILLER_100_365
*1360 FILLER_100_377
*1361 FILLER_100_389
*1362 FILLER_100_401
*1363 FILLER_100_41
*1364 FILLER_100_413
*1365 FILLER_100_419
*1366 FILLER_100_421
*1367 FILLER_100_433
*1368 FILLER_100_445
*1369 FILLER_100_457
*1370 FILLER_100_469
*1371 FILLER_100_475
*1372 FILLER_100_477
*1373 FILLER_100_489
*1374 FILLER_100_501
*1375 FILLER_100_513
*1376 FILLER_100_525
*1377 FILLER_100_53
*1378 FILLER_100_531
*1379 FILLER_100_533
*1380 FILLER_100_545
*1381 FILLER_100_557
*1382 FILLER_100_569
*1383 FILLER_100_581
*1384 FILLER_100_587
*1385 FILLER_100_589
*1386 FILLER_100_601
*1387 FILLER_100_613
*1388 FILLER_100_625
*1389 FILLER_100_637
*1390 FILLER_100_643
*1391 FILLER_100_645
*1392 FILLER_100_65
*1393 FILLER_100_657
*1394 FILLER_100_669
*1395 FILLER_100_681
*1396 FILLER_100_693
*1397 FILLER_100_699
*1398 FILLER_100_701
*1399 FILLER_100_713
*1400 FILLER_100_725
*1401 FILLER_100_737
*1402 FILLER_100_749
*1403 FILLER_100_755
*1404 FILLER_100_757
*1405 FILLER_100_769
*1406 FILLER_100_77
*1407 FILLER_100_781
*1408 FILLER_100_793
*1409 FILLER_100_805
*1410 FILLER_100_811
*1411 FILLER_100_813
*1412 FILLER_100_825
*1413 FILLER_100_83
*1414 FILLER_100_837
*1415 FILLER_100_849
*1416 FILLER_100_85
*1417 FILLER_100_861
*1418 FILLER_100_867
*1419 FILLER_100_869
*1420 FILLER_100_881
*1421 FILLER_100_893
*1422 FILLER_100_905
*1423 FILLER_100_917
*1424 FILLER_100_923
*1425 FILLER_100_925
*1426 FILLER_100_937
*1427 FILLER_100_949
*1428 FILLER_100_961
*1429 FILLER_100_97
*1430 FILLER_100_973
*1431 FILLER_100_979
*1432 FILLER_100_981
*1433 FILLER_100_993
*1434 FILLER_101_1001
*1435 FILLER_101_1007
*1436 FILLER_101_1009
*1437 FILLER_101_1021
*1438 FILLER_101_1033
*1439 FILLER_101_1045
*1440 FILLER_101_105
*1441 FILLER_101_1057
*1442 FILLER_101_1063
*1443 FILLER_101_1065
*1444 FILLER_101_1077
*1445 FILLER_101_1089
*1446 FILLER_101_1101
*1447 FILLER_101_111
*1448 FILLER_101_1113
*1449 FILLER_101_1119
*1450 FILLER_101_1121
*1451 FILLER_101_113
*1452 FILLER_101_1133
*1453 FILLER_101_1145
*1454 FILLER_101_1157
*1455 FILLER_101_1169
*1456 FILLER_101_1175
*1457 FILLER_101_1177
*1458 FILLER_101_1189
*1459 FILLER_101_1201
*1460 FILLER_101_1213
*1461 FILLER_101_1225
*1462 FILLER_101_1231
*1463 FILLER_101_1233
*1464 FILLER_101_1245
*1465 FILLER_101_125
*1466 FILLER_101_1257
*1467 FILLER_101_1269
*1468 FILLER_101_1281
*1469 FILLER_101_1287
*1470 FILLER_101_1289
*1471 FILLER_101_1301
*1472 FILLER_101_1313
*1473 FILLER_101_1325
*1474 FILLER_101_1337
*1475 FILLER_101_1343
*1476 FILLER_101_1345
*1477 FILLER_101_1357
*1478 FILLER_101_1369
*1479 FILLER_101_137
*1480 FILLER_101_1381
*1481 FILLER_101_1393
*1482 FILLER_101_1399
*1483 FILLER_101_1401
*1484 FILLER_101_1413
*1485 FILLER_101_1425
*1486 FILLER_101_1437
*1487 FILLER_101_1449
*1488 FILLER_101_1455
*1489 FILLER_101_1457
*1490 FILLER_101_1469
*1491 FILLER_101_1481
*1492 FILLER_101_149
*1493 FILLER_101_1493
*1494 FILLER_101_15
*1495 FILLER_101_1505
*1496 FILLER_101_1511
*1497 FILLER_101_1513
*1498 FILLER_101_1525
*1499 FILLER_101_1537
*1500 FILLER_101_1549
*1501 FILLER_101_1561
*1502 FILLER_101_1567
*1503 FILLER_101_1569
*1504 FILLER_101_1581
*1505 FILLER_101_1593
*1506 FILLER_101_1605
*1507 FILLER_101_161
*1508 FILLER_101_1617
*1509 FILLER_101_1623
*1510 FILLER_101_1625
*1511 FILLER_101_1637
*1512 FILLER_101_1649
*1513 FILLER_101_1661
*1514 FILLER_101_167
*1515 FILLER_101_1673
*1516 FILLER_101_1679
*1517 FILLER_101_1681
*1518 FILLER_101_169
*1519 FILLER_101_1693
*1520 FILLER_101_1705
*1521 FILLER_101_1717
*1522 FILLER_101_1729
*1523 FILLER_101_1735
*1524 FILLER_101_1737
*1525 FILLER_101_1749
*1526 FILLER_101_1761
*1527 FILLER_101_1773
*1528 FILLER_101_1785
*1529 FILLER_101_1791
*1530 FILLER_101_1793
*1531 FILLER_101_1805
*1532 FILLER_101_181
*1533 FILLER_101_1817
*1534 FILLER_101_1829
*1535 FILLER_101_1841
*1536 FILLER_101_1847
*1537 FILLER_101_1849
*1538 FILLER_101_1861
*1539 FILLER_101_1873
*1540 FILLER_101_1885
*1541 FILLER_101_1897
*1542 FILLER_101_1903
*1543 FILLER_101_1905
*1544 FILLER_101_1917
*1545 FILLER_101_193
*1546 FILLER_101_205
*1547 FILLER_101_217
*1548 FILLER_101_223
*1549 FILLER_101_225
*1550 FILLER_101_237
*1551 FILLER_101_249
*1552 FILLER_101_261
*1553 FILLER_101_27
*1554 FILLER_101_273
*1555 FILLER_101_279
*1556 FILLER_101_281
*1557 FILLER_101_293
*1558 FILLER_101_3
*1559 FILLER_101_305
*1560 FILLER_101_317
*1561 FILLER_101_329
*1562 FILLER_101_335
*1563 FILLER_101_337
*1564 FILLER_101_349
*1565 FILLER_101_361
*1566 FILLER_101_373
*1567 FILLER_101_385
*1568 FILLER_101_39
*1569 FILLER_101_391
*1570 FILLER_101_393
*1571 FILLER_101_405
*1572 FILLER_101_417
*1573 FILLER_101_429
*1574 FILLER_101_441
*1575 FILLER_101_447
*1576 FILLER_101_449
*1577 FILLER_101_461
*1578 FILLER_101_473
*1579 FILLER_101_485
*1580 FILLER_101_497
*1581 FILLER_101_503
*1582 FILLER_101_505
*1583 FILLER_101_51
*1584 FILLER_101_517
*1585 FILLER_101_529
*1586 FILLER_101_541
*1587 FILLER_101_55
*1588 FILLER_101_553
*1589 FILLER_101_559
*1590 FILLER_101_561
*1591 FILLER_101_57
*1592 FILLER_101_573
*1593 FILLER_101_585
*1594 FILLER_101_597
*1595 FILLER_101_609
*1596 FILLER_101_615
*1597 FILLER_101_617
*1598 FILLER_101_629
*1599 FILLER_101_641
*1600 FILLER_101_653
*1601 FILLER_101_665
*1602 FILLER_101_671
*1603 FILLER_101_673
*1604 FILLER_101_685
*1605 FILLER_101_69
*1606 FILLER_101_697
*1607 FILLER_101_709
*1608 FILLER_101_721